/*--------------------------------*- C++ -*----------------------------------*\
| =========                 |                                                 |
| \\      /  F ield         | OpenFOAM: The Open Source CFD Toolbox           |
|  \\    /   O peration     | Version:  2512                                  |
|   \\  /    A nd           | Website:  www.openfoam.com                      |
|    \\/     M anipulation  |                                                 |
\*---------------------------------------------------------------------------*/
FoamFile
{
    version     2.0;
    format      binary;
    arch        "LSB;label=32;scalar=64";
    class       polyBoundaryMesh;
    location    "constant/polyMesh";
    object      boundary;
}
// * * * * * * * * * * * * * * * * * * * * * * * * * * * * * * * * * * * * * //

7
(
    xMin
    {
        type            cyclic;
        inGroups        1(cyclic);
        nFaces          6144;
        startFace       4385218;
        matchTolerance  1e-06;
        transform       unknown;
        neighbourPatch  xMax;
    }
    xMax
    {
        type            cyclic;
        inGroups        1(cyclic);
        nFaces          6144;
        startFace       4391362;
        matchTolerance  1e-06;
        transform       unknown;
        neighbourPatch  xMin;
    }
    zMin
    {
        type            cyclic;
        inGroups        1(cyclic);
        nFaces          16384;
        startFace       4397506;
        matchTolerance  1e-06;
        transform       unknown;
        neighbourPatch  zMax;
    }
    zMax
    {
        type            cyclic;
        inGroups        1(cyclic);
        nFaces          16384;
        startFace       4413890;
        matchTolerance  1e-06;
        transform       unknown;
        neighbourPatch  zMin;
    }
    bottomWall
    {
        type            wall;
        inGroups        1(wall);
        nFaces          6144;
        startFace       4430274;
    }
    topWall
    {
        type            wall;
        inGroups        1(wall);
        nFaces          6144;
        startFace       4436418;
    }
    NACA0012
    {
        type            wall;
        inGroups        1(wall);
        nFaces          38132;
        startFace       4442562;
    }
)

// ************************************************************************* //
